* "spice" description for "dwc_ucie2phy_lcdl", "lcdl_crsdly_nand_stg_shift_even", "spice" 


simulator lang=spice

.SUBCKT lcdl_crsdly_nand_stg_shift_even

.ENDS